/home/ANSYSDev/v261/fluent/fluent26.1.0/bin/fluent -r26.1.0 3ddp -py -gu -driver null -meshing -sifile=/tmp/serverinfo-n0ei68jb.txt -nm
/home/ANSYSDev/v261/fluent/fluent26.1.0/cortex/lnamd64/cortex.26.1.0 -f fluent -py -gu -meshing -sifile=/tmp/serverinfo-n0ei68jb.txt -nm (fluent "3ddp -peth  -host -r26.1.0 -t1 -mpi=intel -path/home/ANSYSDev/v261/fluent -ssh")

Opening input/output transcript to file "/home/jhilton-/pyfluent/fluent-20251002-135152-235099.trn".
Auto-Transcript Start Time:  13:51:52, 02 Oct 2025 
/home/ANSYSDev/v261/fluent/fluent26.1.0/bin/fluent -r26.1.0 3ddp -peth -host -t1 -mpi=intel -path/home/ANSYSDev/v261/fluent -ssh -cx cdcvdu24a07.ansys.com:38299:36319
Starting /home/ANSYSDev/v261/fluent/fluent26.1.0/lnamd64/3ddp_host/fluent.26.1.0 host -cx cdcvdu24a07.ansys.com:38299:36319 "(list (rpsetvar (QUOTE parallel/function) "fluent 3ddp -flux -node -r26.1.0 -t1 -peth -mpi=intel -ssh") (rpsetvar (QUOTE parallel/rhost) "") (rpsetvar (QUOTE parallel/ruser) "") (rpsetvar (QUOTE parallel/nprocs_string) "1") (rpsetvar (QUOTE parallel/auto-spawn?) #t) (rpsetvar (QUOTE parallel/trace-level) 0) (rpsetvar (QUOTE parallel/remote-shell) 1) (rpsetvar (QUOTE parallel/path) "/home/ANSYSDev/v261/fluent") (rpsetvar (QUOTE parallel/hostsfile) "") (rpsetvar (QUOTE gpuapp/devices) ""))"

              Welcome to ANSYS Fluent 2026 R1

              Copyright 1987-2026 ANSYS, Inc. All Rights Reserved.
              Unauthorized use, distribution or duplication is prohibited.
              This product is subject to U.S. laws governing export and re-export.
              For full Legal Notice, see documentation.

Build Time: Sep 30 2025 00:24:59 EDT  Build Id: 158  Revision: 2a2d623d67  Branch: develop
 
Connected License Server List:	1055@cdc5winlicense1.win.ansys.com
Host spawning Node 0 on machine "cdcvdu24a07" (unix).
/home/ANSYSDev/v261/fluent/fluent26.1.0/bin/fluent -r26.1.0 3ddp -flux -node -t1 -peth -mpi=intel -ssh -meshing -mport 127.0.1.1:127.0.1.1:38235:0
Starting /home/ANSYSDev/v261/fluent/fluent26.1.0/multiport/mpi/lnamd64/intel/bin/mpirun -f /tmp/fluent-appfile.jhilton-.235777 -genv I_MPI_OFI_PROVIDER tcp -genv FLUENT_ARCH lnamd64 -genv I_MPI_DEBUG 0 -genv I_MPI_ADJUST_GATHERV 3 -genv I_MPI_ADJUST_ALLREDUCE 2 -genv I_MPI_PLATFORM auto -genv PYTHONHOME /home/ANSYSDev/v261/fluent/fluent26.1.0/../../commonfiles/CPython/3_10/linx64/Release/python -genv FLUENT_PROD_DIR /home/ANSYSDev/v261/fluent/fluent26.1.0 -genv FLUENT_AFFINITY 0 -genv I_MPI_PIN enable -genv KMP_AFFINITY disabled -n 1 /home/ANSYSDev/v261/fluent/fluent26.1.0/lnamd64/3ddp_node/fluent_mpi.26.1.0 node -mpiw intel -pic ethernet -mport 127.0.1.1:127.0.1.1:38235:0 -meshing

Node 0 connecting to the Host ... connection established.

-------------------------------------------------------------------------------
ID    Hostname     Core  O.S.      PID     CPU Model Name                 
-------------------------------------------------------------------------------
n0    cdcvdu24a07  1/12  Linux-64  235852  Intel(R) Xeon(R) Platinum 8358 
host  cdcvdu24a07        Linux-64  235304  Intel(R) Xeon(R) Platinum 8358 

MPI Option Selected: intel
-------------------------------------------------------------------------------

Cleanup script file is /home/jhilton-/pyfluent/cleanup-fluent-cdcvdu24a07-235304.sh
WARNING: Rank:0 Machine cdcvdu24a07 has 22 % of RAM filled with file buffer caches.
This can cause potential performance issues. Please use -cflush flag to flush the cache. 


WARNING:
This is a prototype version that has not yet been tested and validated.
ANSYS, Inc. makes no commitment to resolve defects reported against this
prototype version.  However, your feedback will help us improve the overall
quality of the product.

Graphics driver currently in use: null
Information: The server has started and is running.
/home/ANSYSDev/v261/commonfiles/CPython/3_10/linx64/Release/Ansys/PyFluentCore/ansys/fluent/core/__init__.py:152: PyFluentDeprecationWarning: 'DATAMODEL_USE_STATE_CACHE' is deprecated, use 'config.datamodel_use_state_cache' instead.
  warnings.warn(
>>> Shutting down Server...
Services Shutdown...Done.
Server Shutdown...Done.
Queue Cleared...Done.
Shutdown Complete.
Auto-Transcript Stop Time:  13:52:06, 02 Oct 2025 
Total Transcript Time: 0 Minute 14 Second.

Automatic transcript closed.
/home/ANSYSDev/v261/fluent/fluent26.1.0/bin/fluent -r26.1.0 3ddp -py -gu -driver null -sifile=/tmp/serverinfo-19uf01k0.txt -nm
/home/ANSYSDev/v261/fluent/fluent26.1.0/cortex/lnamd64/cortex.26.1.0 -f fluent -py -gu -sifile=/tmp/serverinfo-19uf01k0.txt -nm (fluent "3ddp -pdefault  -host -r26.1.0 -t1 -mpi=intel -path/home/ANSYSDev/v261/fluent -ssh")

Opening input/output transcript to file "/home/jhilton-/pyfluent/fluent-20251002-135226-236903.trn".
Auto-Transcript Start Time:  13:52:26, 02 Oct 2025 
/home/ANSYSDev/v261/fluent/fluent26.1.0/bin/fluent -r26.1.0 3ddp -pdefault -host -t1 -mpi=intel -path/home/ANSYSDev/v261/fluent -ssh -cx cdcvdu24a07.ansys.com:34255:40591
Starting /home/ANSYSDev/v261/fluent/fluent26.1.0/lnamd64/3ddp_host/fluent.26.1.0 host -cx cdcvdu24a07.ansys.com:34255:40591 "(list (rpsetvar (QUOTE parallel/function) "fluent 3ddp -flux -node -r26.1.0 -t1 -pdefault -mpi=intel -ssh") (rpsetvar (QUOTE parallel/rhost) "") (rpsetvar (QUOTE parallel/ruser) "") (rpsetvar (QUOTE parallel/nprocs_string) "1") (rpsetvar (QUOTE parallel/auto-spawn?) #t) (rpsetvar (QUOTE parallel/trace-level) 0) (rpsetvar (QUOTE parallel/remote-shell) 1) (rpsetvar (QUOTE parallel/path) "/home/ANSYSDev/v261/fluent") (rpsetvar (QUOTE parallel/hostsfile) "") (rpsetvar (QUOTE gpuapp/devices) ""))"

              Welcome to ANSYS Fluent 2026 R1

              Copyright 1987-2026 ANSYS, Inc. All Rights Reserved.
              Unauthorized use, distribution or duplication is prohibited.
              This product is subject to U.S. laws governing export and re-export.
              For full Legal Notice, see documentation.

Build Time: Sep 30 2025 00:24:59 EDT  Build Id: 158  Revision: 2a2d623d67  Branch: develop
 
Connected License Server List:	1055@cdc5winlicense1.win.ansys.com

*********************************************
Info: Your license enables 4-way parallel execution.
For faster simulations, please start the application with the appropriate parallel options.
*********************************************

Host spawning Node 0 on machine "cdcvdu24a07" (unix).
/home/ANSYSDev/v261/fluent/fluent26.1.0/bin/fluent -r26.1.0 3ddp -flux -node -t1 -pdefault -mpi=intel -ssh -mport 127.0.1.1:127.0.1.1:35413:0
Starting /home/ANSYSDev/v261/fluent/fluent26.1.0/multiport/mpi/lnamd64/intel/bin/mpirun -f /tmp/fluent-appfile.jhilton-.237464 -genv I_MPI_FABRICS shm -genv FLUENT_ARCH lnamd64 -genv I_MPI_DEBUG 0 -genv I_MPI_ADJUST_GATHERV 3 -genv I_MPI_ADJUST_ALLREDUCE 2 -genv I_MPI_PLATFORM auto -genv PYTHONHOME /home/ANSYSDev/v261/fluent/fluent26.1.0/../../commonfiles/CPython/3_10/linx64/Release/python -genv FLUENT_PROD_DIR /home/ANSYSDev/v261/fluent/fluent26.1.0 -genv FLUENT_AFFINITY 0 -genv I_MPI_PIN enable -genv KMP_AFFINITY disabled -n 1 /home/ANSYSDev/v261/fluent/fluent26.1.0/lnamd64/3ddp_node/fluent_mpi.26.1.0 node -mpiw intel -pic shmem -mport 127.0.1.1:127.0.1.1:35413:0

Node 0 connecting to the Host ... connection established.

-------------------------------------------------------------------------------
ID    Hostname     Core  O.S.      PID     CPU Model Name                 
-------------------------------------------------------------------------------
n0    cdcvdu24a07  1/12  Linux-64  237535  Intel(R) Xeon(R) Platinum 8358 
host  cdcvdu24a07        Linux-64  237118  Intel(R) Xeon(R) Platinum 8358 

MPI Option Selected: intel
-------------------------------------------------------------------------------

Cleanup script file is /home/jhilton-/pyfluent/cleanup-fluent-cdcvdu24a07-237118.sh
WARNING: Rank:0 Machine cdcvdu24a07 has 22 % of RAM filled with file buffer caches.
This can cause potential performance issues. Please use -cflush flag to flush the cache. 


WARNING:
This is a prototype version that has not yet been tested and validated.
ANSYS, Inc. makes no commitment to resolve defects reported against this
prototype version.  However, your feedback will help us improve the overall
quality of the product.

Graphics driver currently in use: null
Information: The server has started and is running.
/home/ANSYSDev/v261/commonfiles/CPython/3_10/linx64/Release/Ansys/PyFluentCore/ansys/fluent/core/__init__.py:152: PyFluentDeprecationWarning: 'DATAMODEL_USE_STATE_CACHE' is deprecated, use 'config.datamodel_use_state_cache' instead.
  warnings.warn(
>>> Shutting down Server...
Services Shutdown...Done.
Server Shutdown...Done.
Queue Cleared...Done.
Shutdown Complete.
Auto-Transcript Stop Time:  13:52:39, 02 Oct 2025 
Total Transcript Time: 0 Minute 13 Second.

Automatic transcript closed.
/home/ANSYSDev/v261/fluent/fluent26.1.0/bin/fluent -r26.1.0 3ddp -py -t4 -gu -driver null -sifile=/tmp/serverinfo-my444485.txt -nm
/home/ANSYSDev/v261/fluent/fluent26.1.0/cortex/lnamd64/cortex.26.1.0 -f fluent -py -gu -sifile=/tmp/serverinfo-my444485.txt -nm (fluent "3ddp -pdefault  -host -r26.1.0 -t4 -mpi=intel -path/home/ANSYSDev/v261/fluent -ssh")

Opening input/output transcript to file "/home/jhilton-/pyfluent/fluent-20251017-141725-1421453.trn".
Auto-Transcript Start Time:  14:17:25, 17 Oct 2025 
/home/ANSYSDev/v261/fluent/fluent26.1.0/bin/fluent -r26.1.0 3ddp -pdefault -host -t4 -mpi=intel -path/home/ANSYSDev/v261/fluent -ssh -cx cdcvdu24a07.ansys.com:33917:41681
Starting /home/ANSYSDev/v261/fluent/fluent26.1.0/lnamd64/3ddp_host/fluent.26.1.0 host -cx cdcvdu24a07.ansys.com:33917:41681 "(list (rpsetvar (QUOTE parallel/function) "fluent 3ddp -flux -node -r26.1.0 -t4 -pdefault -mpi=intel -ssh") (rpsetvar (QUOTE parallel/rhost) "") (rpsetvar (QUOTE parallel/ruser) "") (rpsetvar (QUOTE parallel/nprocs_string) "4") (rpsetvar (QUOTE parallel/auto-spawn?) #t) (rpsetvar (QUOTE parallel/trace-level) 0) (rpsetvar (QUOTE parallel/remote-shell) 1) (rpsetvar (QUOTE parallel/path) "/home/ANSYSDev/v261/fluent") (rpsetvar (QUOTE parallel/hostsfile) "") (rpsetvar (QUOTE gpuapp/devices) ""))"

              Welcome to ANSYS Fluent 2026 R1

              Copyright 1987-2026 ANSYS, Inc. All Rights Reserved.
              Unauthorized use, distribution or duplication is prohibited.
              This product is subject to U.S. laws governing export and re-export.
              For full Legal Notice, see documentation.

Build Time: Oct 16 2025 00:25:18 EDT  Build Id: 174  Revision: 787def9fbf  Branch: develop
 
Connected License Server List:	1055@cdc5winlicense1.win.ansys.com
Host spawning Node 0 on machine "cdcvdu24a07" (unix).
/home/ANSYSDev/v261/fluent/fluent26.1.0/bin/fluent -r26.1.0 3ddp -flux -node -t4 -pdefault -mpi=intel -ssh -mport 127.0.1.1:127.0.1.1:41469:0
Starting /home/ANSYSDev/v261/fluent/fluent26.1.0/multiport/mpi/lnamd64/intel/bin/mpirun -f /tmp/fluent-appfile.jhilton-.1422017 -genv I_MPI_FABRICS shm -genv FLUENT_ARCH lnamd64 -genv I_MPI_DEBUG 0 -genv I_MPI_ADJUST_GATHERV 3 -genv I_MPI_ADJUST_ALLREDUCE 2 -genv I_MPI_PLATFORM auto -genv PYTHONHOME /home/ANSYSDev/v261/fluent/fluent26.1.0/../../commonfiles/CPython/3_10/linx64/Release/python -genv FLUENT_PROD_DIR /home/ANSYSDev/v261/fluent/fluent26.1.0 -genv FLUENT_AFFINITY 0 -genv I_MPI_PIN enable -genv KMP_AFFINITY disabled -n 4 /home/ANSYSDev/v261/fluent/fluent26.1.0/lnamd64/3ddp_node/fluent_mpi.26.1.0 node -mpiw intel -pic shmem -mport 127.0.1.1:127.0.1.1:41469:0

Node 0 connecting to the Host ... connection established.

------------------------------------------------------------------------------------
ID    Hostname     Core  O.S.      PID              CPU Model Name                 
------------------------------------------------------------------------------------
n0-3  cdcvdu24a07  4/12  Linux-64  1422088-1422091  Intel(R) Xeon(R) Platinum 8358 
host  cdcvdu24a07        Linux-64  1421662          Intel(R) Xeon(R) Platinum 8358 

MPI Option Selected: intel
Selected system interconnect: shared-memory
------------------------------------------------------------------------------------

Cleanup script file is /home/jhilton-/pyfluent/cleanup-fluent-cdcvdu24a07-1421662.sh
WARNING: Rank:0 Machine cdcvdu24a07 has 40 % of RAM filled with file buffer caches.
This can cause potential performance issues. Please use -cflush flag to flush the cache. 


WARNING:
This is a prototype version that has not yet been tested and validated.
ANSYS, Inc. makes no commitment to resolve defects reported against this
prototype version.  However, your feedback will help us improve the overall
quality of the product.

Graphics driver currently in use: null
Information: The server has started and is running.
>>> Fast-loading "/home/ANSYSDev/v261/fluent/fluent26.1.0/addons/afd/lib/hdfio.bin"
Done.

Reading from cdcvdu24a07:"/home/jhilton-/pyfluent/axial_comp_fullWheel_DFT_23R2.cas.h5" in NODE0 mode ...
  Reading mesh ...
Warning: reading 14 partition grid onto 4 compute node machine.
         will auto partition.
      221696 cells,     2 cell zones ...
          97280 hexahedral cells,  zone id: 1
         124416 hexahedral cells,  zone id: 2
      718336 faces,    14 face zones ...
            128 mixed wall faces,  zone id: 17
          15712 mixed interior faces,  zone id: 16
         350624 quadrilateral interior faces,  zone id: 15
          12288 quadrilateral wall faces,  zone id: 3
           2560 quadrilateral pressure-inlet faces,  zone id: 4
           2560 quadrilateral interface faces,  zone id: 5
           6080 quadrilateral wall faces,  zone id: 6
           6080 quadrilateral wall faces,  zone id: 7
          20480 quadrilateral wall faces,  zone id: 8
           4608 quadrilateral interface faces,  zone id: 9
           4608 quadrilateral pressure-outlet faces,  zone id: 10
           7776 quadrilateral wall faces,  zone id: 11
           7776 quadrilateral wall faces,  zone id: 12
         277056 quadrilateral interior faces,  zone id: 14
      259760 nodes,     1 node zone  ...
  Done.


Building...
     mesh
	auto partitioning mesh by Metis (fast),
	distributing mesh
		parts....,
		faces....,
		nodes....,
		cells....,
        bandwidth reduction using Reverse Cuthill-McKee: 23459/621 = 37.7762
  Reading NCI Node Coordinates ...
  Done.

     materials,
     interface,
     domains,
	mixture
     zones,
	default-interior:015
	default-interior
	stator_shroud
	stator_hub
	outlet
	int-side-2
	s1-default
	rotor_shroud
	rotor_hub
	int-side-1
	r1-default
	inlet
	int-side-1-non-overlapping
	int-side-2-non-overlapping
	intf:01:int-side-2::int-side-1
	s1
	r1
     mesh interfaces,
     parallel,
Done.

Reading from cdcvdu24a07:"/home/jhilton-/pyfluent/axial_comp_fullWheel_DFT_23R2.dat.h5" in NODE0 mode ...


  Reading results.
Parallel variables...
Done.

          mag-report
 -------------------
                  Vertex Average                [Pa]
-------------------------------- -------------------
                         point-0           113752.22

          mag-report
 -------------------
                  Vertex Average                    
-------------------------------- -------------------
                         point-0           1176.1597

        phase-report
 -------------------
                  Vertex Average                    
-------------------------------- -------------------
                         point-0          -0.6693092

          mag-report
 -------------------
                  Vertex Average                    
-------------------------------- -------------------
                         point-0           694.86646

        phase-report
 -------------------
                  Vertex Average                    
-------------------------------- -------------------
                         point-0          -2.3708057

          mag-report
 -------------------
                  Vertex Average                    
-------------------------------- -------------------
                         point-0           367.97137

        phase-report
 -------------------
                  Vertex Average                    
-------------------------------- -------------------
                         point-0          -2.5139024

          mag-report
 -------------------
                  Vertex Average                [Pa]
-------------------------------- -------------------
                         point-5           111517.62

          mag-report
 -------------------
                  Vertex Average                    
-------------------------------- -------------------
                         point-5           892.52234

        phase-report
 -------------------
                  Vertex Average                    
-------------------------------- -------------------
                         point-5          -1.1466205

          mag-report
 -------------------
                  Vertex Average                    
-------------------------------- -------------------
                         point-5           385.39178

        phase-report
 -------------------
                  Vertex Average                    
-------------------------------- -------------------
                         point-5          -2.0489597

          mag-report
 -------------------
                  Vertex Average                    
-------------------------------- -------------------
                         point-5           161.73074

        phase-report
 -------------------
                  Vertex Average                    
-------------------------------- -------------------
                         point-5           1.2682948

          mag-report
 -------------------
                  Vertex Average                [Pa]
-------------------------------- -------------------
                        point-10           116214.83

          mag-report
 -------------------
                  Vertex Average                    
-------------------------------- -------------------
                        point-10           1068.9811

        phase-report
 -------------------
                  Vertex Average                    
-------------------------------- -------------------
                        point-10           1.3837001

          mag-report
 -------------------
                  Vertex Average                    
-------------------------------- -------------------
                        point-10           787.32031

        phase-report
 -------------------
                  Vertex Average                    
-------------------------------- -------------------
                        point-10          0.76521456

          mag-report
 -------------------
                  Vertex Average                    
-------------------------------- -------------------
                        point-10           591.38916

        phase-report
 -------------------
                  Vertex Average                    
-------------------------------- -------------------
                        point-10          0.45400959

          mag-report
 -------------------
                  Vertex Average                [Pa]
-------------------------------- -------------------
                        point-15           110312.91

          mag-report
 -------------------
                  Vertex Average                    
-------------------------------- -------------------
                        point-15            638.4939

        phase-report
 -------------------
                  Vertex Average                    
-------------------------------- -------------------
                        point-15           2.4222956

          mag-report
 -------------------
                  Vertex Average                    
-------------------------------- -------------------
                        point-15           717.90924

        phase-report
 -------------------
                  Vertex Average                    
-------------------------------- -------------------
                        point-15          0.81965005

          mag-report
 -------------------
                  Vertex Average                    
-------------------------------- -------------------
                        point-15           673.80231

        phase-report
 -------------------
                  Vertex Average                    
-------------------------------- -------------------
                        point-15          -0.3552984

          mag-report
 -------------------
                  Vertex Average                [Pa]
-------------------------------- -------------------
                        point-20              117895

          mag-report
 -------------------
                  Vertex Average                    
-------------------------------- -------------------
                        point-20           874.93573

        phase-report
 -------------------
                  Vertex Average                    
-------------------------------- -------------------
                        point-20       0.00097252429

          mag-report
 -------------------
                  Vertex Average                    
-------------------------------- -------------------
                        point-20           667.66705

        phase-report
 -------------------
                  Vertex Average                    
-------------------------------- -------------------
                        point-20          -2.2952578

          mag-report
 -------------------
                  Vertex Average                    
-------------------------------- -------------------
                        point-20           208.22971

        phase-report
 -------------------
                  Vertex Average                    
-------------------------------- -------------------
                        point-20          0.34285441

          mag-report
 -------------------
                  Vertex Average                [Pa]
-------------------------------- -------------------
                        point-25            110110.2

          mag-report
 -------------------
                  Vertex Average                    
-------------------------------- -------------------
                        point-25            700.3186

        phase-report
 -------------------
                  Vertex Average                    
-------------------------------- -------------------
                        point-25         -0.73711222

          mag-report
 -------------------
                  Vertex Average                    
-------------------------------- -------------------
                        point-25           359.25797

        phase-report
 -------------------
                  Vertex Average                    
-------------------------------- -------------------
                        point-25          -2.2344632

          mag-report
 -------------------
                  Vertex Average                    
-------------------------------- -------------------
                        point-25           194.30997

        phase-report
 -------------------
                  Vertex Average                    
-------------------------------- -------------------
                        point-25          -2.2078063

          mag-report
 -------------------
                  Vertex Average                [Pa]
-------------------------------- -------------------
                        point-30           116076.66

          mag-report
 -------------------
                  Vertex Average                    
-------------------------------- -------------------
                        point-30           1008.8767

        phase-report
 -------------------
                  Vertex Average                    
-------------------------------- -------------------
                        point-30         -0.29745746

          mag-report
 -------------------
                  Vertex Average                    
-------------------------------- -------------------
                        point-30            545.6109

        phase-report
 -------------------
                  Vertex Average                    
-------------------------------- -------------------
                        point-30          -1.4676629

          mag-report
 -------------------
                  Vertex Average                    
-------------------------------- -------------------
                        point-30           365.71259

        phase-report
 -------------------
                  Vertex Average                    
-------------------------------- -------------------
                        point-30         -0.74667454

          mag-report
 -------------------
                  Vertex Average                [Pa]
-------------------------------- -------------------
                        point-35           111262.92

          mag-report
 -------------------
                  Vertex Average                    
-------------------------------- -------------------
                        point-35           807.59229

        phase-report
 -------------------
                  Vertex Average                    
-------------------------------- -------------------
                        point-35           2.1705761

          mag-report
 -------------------
                  Vertex Average                    
-------------------------------- -------------------
                        point-35           893.62701

        phase-report
 -------------------
                  Vertex Average                    
-------------------------------- -------------------
                        point-35           1.2220265

          mag-report
 -------------------
                  Vertex Average                    
-------------------------------- -------------------
                        point-35           913.16907

        phase-report
 -------------------
                  Vertex Average                    
-------------------------------- -------------------
                        point-35          0.83413827

          mag-report
 -------------------
                  Vertex Average                [Pa]
-------------------------------- -------------------
                        point-40            112775.5

          mag-report
 -------------------
                  Vertex Average                    
-------------------------------- -------------------
                        point-40           864.36536

        phase-report
 -------------------
                  Vertex Average                    
-------------------------------- -------------------
                        point-40           2.0126512

          mag-report
 -------------------
                  Vertex Average                    
-------------------------------- -------------------
                        point-40           713.97107

        phase-report
 -------------------
                  Vertex Average                    
-------------------------------- -------------------
                        point-40         -0.31079605

          mag-report
 -------------------
                  Vertex Average                    
-------------------------------- -------------------
                        point-40           520.35345

        phase-report
 -------------------
                  Vertex Average                    
-------------------------------- -------------------
                        point-40          -1.4051884

          mag-report
 -------------------
                  Vertex Average                [Pa]
-------------------------------- -------------------
                        point-45           113392.14

          mag-report
 -------------------
                  Vertex Average                    
-------------------------------- -------------------
                        point-45           902.71228

        phase-report
 -------------------
                  Vertex Average                    
-------------------------------- -------------------
                        point-45         -0.83835095

          mag-report
 -------------------
                  Vertex Average                    
-------------------------------- -------------------
                        point-45            332.1467

        phase-report
 -------------------
                  Vertex Average                    
-------------------------------- -------------------
                        point-45          0.33517891

          mag-report
 -------------------
                  Vertex Average                    
-------------------------------- -------------------
                        point-45           116.19093

        phase-report
 -------------------
                  Vertex Average                    
-------------------------------- -------------------
                        point-45           0.6529327

          mag-report
 -------------------
                  Vertex Average                [Pa]
-------------------------------- -------------------
                        point-50            110922.9

          mag-report
 -------------------
                  Vertex Average                    
-------------------------------- -------------------
                        point-50           437.06058

        phase-report
 -------------------
                  Vertex Average                    
-------------------------------- -------------------
                        point-50          -1.0336728

          mag-report
 -------------------
                  Vertex Average                    
-------------------------------- -------------------
                        point-50           161.82187

        phase-report
 -------------------
                  Vertex Average                    
-------------------------------- -------------------
                        point-50          -1.2643119

          mag-report
 -------------------
                  Vertex Average                    
-------------------------------- -------------------
                        point-50           128.24951

        phase-report
 -------------------
                  Vertex Average                    
-------------------------------- -------------------
                        point-50         -0.70265424

          mag-report
 -------------------
                  Vertex Average                [Pa]
-------------------------------- -------------------
                        point-55           116340.47

          mag-report
 -------------------
                  Vertex Average                    
-------------------------------- -------------------
                        point-55           941.80304

        phase-report
 -------------------
                  Vertex Average                    
-------------------------------- -------------------
                        point-55           1.9380805

          mag-report
 -------------------
                  Vertex Average                    
-------------------------------- -------------------
                        point-55           649.78387

        phase-report
 -------------------
                  Vertex Average                    
-------------------------------- -------------------
                        point-55          0.70807385

          mag-report
 -------------------
                  Vertex Average                    
-------------------------------- -------------------
                        point-55            564.9812

        phase-report
 -------------------
                  Vertex Average                    
-------------------------------- -------------------
                        point-55          0.31785604

          mag-report
 -------------------
                  Vertex Average                [Pa]
-------------------------------- -------------------
                        point-60           110647.86

          mag-report
 -------------------
                  Vertex Average                    
-------------------------------- -------------------
                        point-60           223.95555

        phase-report
 -------------------
                  Vertex Average                    
-------------------------------- -------------------
                        point-60          0.74060094

          mag-report
 -------------------
                  Vertex Average                    
-------------------------------- -------------------
                        point-60           520.32257

        phase-report
 -------------------
                  Vertex Average                    
-------------------------------- -------------------
                        point-60          0.47313821

          mag-report
 -------------------
                  Vertex Average                    
-------------------------------- -------------------
                        point-60           755.66418

        phase-report
 -------------------
                  Vertex Average                    
-------------------------------- -------------------
                        point-60          -0.7810638

          mag-report
 -------------------
                  Vertex Average                [Pa]
-------------------------------- -------------------
                        point-65           118274.22

          mag-report
 -------------------
                  Vertex Average                    
-------------------------------- -------------------
                        point-65            984.0545

        phase-report
 -------------------
                  Vertex Average                    
-------------------------------- -------------------
                        point-65         -0.64716464

          mag-report
 -------------------
                  Vertex Average                    
-------------------------------- -------------------
                        point-65           867.72113

        phase-report
 -------------------
                  Vertex Average                    
-------------------------------- -------------------
                        point-65          -1.0975096

          mag-report
 -------------------
                  Vertex Average                    
-------------------------------- -------------------
                        point-65           245.49965

        phase-report
 -------------------
                  Vertex Average                    
-------------------------------- -------------------
                        point-65           0.9507786

          mag-report
 -------------------
                  Vertex Average                [Pa]
-------------------------------- -------------------
                        point-70           110774.86

          mag-report
 -------------------
                  Vertex Average                    
-------------------------------- -------------------
                        point-70           726.67657

        phase-report
 -------------------
                  Vertex Average                    
-------------------------------- -------------------
                        point-70          -1.3916254

          mag-report
 -------------------
                  Vertex Average                    
-------------------------------- -------------------
                        point-70           191.43881

        phase-report
 -------------------
                  Vertex Average                    
-------------------------------- -------------------
                        point-70         -0.30591315

          mag-report
 -------------------
                  Vertex Average                    
-------------------------------- -------------------
                        point-70           125.06171

        phase-report
 -------------------
                  Vertex Average                    
-------------------------------- -------------------
                        point-70           1.3313293

          mag-report
 -------------------
                  Vertex Average                [Pa]
-------------------------------- -------------------
                        point-75           116920.47

          mag-report
 -------------------
                  Vertex Average                    
-------------------------------- -------------------
                        point-75            1100.429

        phase-report
 -------------------
                  Vertex Average                    
-------------------------------- -------------------
                        point-75         -0.44229418

          mag-report
 -------------------
                  Vertex Average                    
-------------------------------- -------------------
                        point-75           469.61563

        phase-report
 -------------------
                  Vertex Average                    
-------------------------------- -------------------
                        point-75          -1.1229444

          mag-report
 -------------------
                  Vertex Average                    
-------------------------------- -------------------
                        point-75           339.62158

        phase-report
 -------------------
                  Vertex Average                    
-------------------------------- -------------------
                        point-75         -0.73811769

          mag-report
 -------------------
                  Vertex Average                [Pa]
-------------------------------- -------------------
                        point-80           111801.11

          mag-report
 -------------------
                  Vertex Average                    
-------------------------------- -------------------
                        point-80           867.64728

        phase-report
 -------------------
                  Vertex Average                    
-------------------------------- -------------------
                        point-80           2.2966187

          mag-report
 -------------------
                  Vertex Average                    
-------------------------------- -------------------
                        point-80           676.89905

        phase-report
 -------------------
                  Vertex Average                    
-------------------------------- -------------------
                        point-80           1.2017515

          mag-report
 -------------------
                  Vertex Average                    
-------------------------------- -------------------
                        point-80           739.47974

        phase-report
 -------------------
                  Vertex Average                    
-------------------------------- -------------------
                        point-80          0.94508606

          mag-report
 -------------------
                  Vertex Average                [Pa]
-------------------------------- -------------------
                        point-85           113666.47

          mag-report
 -------------------
                  Vertex Average                    
-------------------------------- -------------------
                        point-85           833.37567

        phase-report
 -------------------
                  Vertex Average                    
-------------------------------- -------------------
                        point-85           1.7995611

          mag-report
 -------------------
                  Vertex Average                    
-------------------------------- -------------------
                        point-85            839.9353

        phase-report
 -------------------
                  Vertex Average                    
-------------------------------- -------------------
                        point-85         -0.38539833

          mag-report
 -------------------
                  Vertex Average                    
-------------------------------- -------------------
                        point-85           637.76794

        phase-report
 -------------------
                  Vertex Average                    
-------------------------------- -------------------
                        point-85          -2.1617908

          mag-report
 -------------------
                  Vertex Average                [Pa]
-------------------------------- -------------------
                        point-90           113739.29

          mag-report
 -------------------
                  Vertex Average                    
-------------------------------- -------------------
                        point-90           1178.0492

        phase-report
 -------------------
                  Vertex Average                    
-------------------------------- -------------------
                        point-90          -0.6666255

          mag-report
 -------------------
                  Vertex Average                    
-------------------------------- -------------------
                        point-90           697.11536

        phase-report
 -------------------
                  Vertex Average                    
-------------------------------- -------------------
                        point-90           -2.365643

          mag-report
 -------------------
                  Vertex Average                    
-------------------------------- -------------------
                        point-90           372.23663

        phase-report
 -------------------
                  Vertex Average                    
-------------------------------- -------------------
                        point-90          -2.5090604

          mag-report
 -------------------
                  Vertex Average                [Pa]
-------------------------------- -------------------
                        point-95           111519.95

          mag-report
 -------------------
                  Vertex Average                    
-------------------------------- -------------------
                        point-95           893.49982

        phase-report
 -------------------
                  Vertex Average                    
-------------------------------- -------------------
                        point-95           -1.145503

          mag-report
 -------------------
                  Vertex Average                    
-------------------------------- -------------------
                        point-95           387.99017

        phase-report
 -------------------
                  Vertex Average                    
-------------------------------- -------------------
                        point-95          -2.0437534

          mag-report
 -------------------
                  Vertex Average                    
-------------------------------- -------------------
                        point-95           163.07201

        phase-report
 -------------------
                  Vertex Average                    
-------------------------------- -------------------
                        point-95            1.287313

          mag-report
 -------------------
                  Vertex Average                [Pa]
-------------------------------- -------------------
                       point-100           116214.04

          mag-report
 -------------------
                  Vertex Average                    
-------------------------------- -------------------
                       point-100           1066.9371

        phase-report
 -------------------
                  Vertex Average                    
-------------------------------- -------------------
                       point-100           1.3838205

          mag-report
 -------------------
                  Vertex Average                    
-------------------------------- -------------------
                       point-100           786.13812

        phase-report
 -------------------
                  Vertex Average                    
-------------------------------- -------------------
                       point-100          0.76507109

          mag-report
 -------------------
                  Vertex Average                    
-------------------------------- -------------------
                       point-100           590.79144

        phase-report
 -------------------
                  Vertex Average                    
-------------------------------- -------------------
                       point-100          0.45458651

          mag-report
 -------------------
                  Vertex Average                [Pa]
-------------------------------- -------------------
                       point-105           110312.06

          mag-report
 -------------------
                  Vertex Average                    
-------------------------------- -------------------
                       point-105           637.78577

        phase-report
 -------------------
                  Vertex Average                    
-------------------------------- -------------------
                       point-105           2.4231422

          mag-report
 -------------------
                  Vertex Average                    
-------------------------------- -------------------
                       point-105           716.08246

        phase-report
 -------------------
                  Vertex Average                    
-------------------------------- -------------------
                       point-105          0.81954473

          mag-report
 -------------------
                  Vertex Average                    
-------------------------------- -------------------
                       point-105           672.70337

        phase-report
 -------------------
                  Vertex Average                    
-------------------------------- -------------------
                       point-105         -0.35588649

          mag-report
 -------------------
                  Vertex Average                [Pa]
-------------------------------- -------------------
                       point-110           117890.37

          mag-report
 -------------------
                  Vertex Average                    
-------------------------------- -------------------
                       point-110           875.75311

        phase-report
 -------------------
                  Vertex Average                    
-------------------------------- -------------------
                       point-110        0.0032832436

          mag-report
 -------------------
                  Vertex Average                    
-------------------------------- -------------------
                       point-110           667.66687

        phase-report
 -------------------
                  Vertex Average                    
-------------------------------- -------------------
                       point-110          -2.2930608

          mag-report
 -------------------
                  Vertex Average                    
-------------------------------- -------------------
                       point-110           209.01704

        phase-report
 -------------------
                  Vertex Average                    
-------------------------------- -------------------
                       point-110          0.34050784

          mag-report
 -------------------
                  Vertex Average                [Pa]
-------------------------------- -------------------
                       point-115           110115.01

          mag-report
 -------------------
                  Vertex Average                    
-------------------------------- -------------------
                       point-115           700.97058

        phase-report
 -------------------
                  Vertex Average                    
-------------------------------- -------------------
                       point-115         -0.73865283

          mag-report
 -------------------
                  Vertex Average                    
-------------------------------- -------------------
                       point-115           358.86438

        phase-report
 -------------------
                  Vertex Average                    
-------------------------------- -------------------
                       point-115          -2.2342949

          mag-report
 -------------------
                  Vertex Average                    
-------------------------------- -------------------
                       point-115           194.29086

        phase-report
 -------------------
                  Vertex Average                    
-------------------------------- -------------------
                       point-115          -2.2105308

          mag-report
 -------------------
                  Vertex Average                [Pa]
-------------------------------- -------------------
                       point-120           116076.46

          mag-report
 -------------------
                  Vertex Average                    
-------------------------------- -------------------
                       point-120           1008.8043

        phase-report
 -------------------
                  Vertex Average                    
-------------------------------- -------------------
                       point-120         -0.29715374

          mag-report
 -------------------
                  Vertex Average                    
-------------------------------- -------------------
                       point-120           545.86273

        phase-report
 -------------------
                  Vertex Average                    
-------------------------------- -------------------
                       point-120          -1.4678197

          mag-report
 -------------------
                  Vertex Average                    
-------------------------------- -------------------
                       point-120            365.8989

        phase-report
 -------------------
                  Vertex Average                    
-------------------------------- -------------------
                       point-120         -0.74720609

          mag-report
 -------------------
                  Vertex Average                [Pa]
-------------------------------- -------------------
                       point-125           111262.95

          mag-report
 -------------------
                  Vertex Average                    
-------------------------------- -------------------
                       point-125           807.20428

        phase-report
 -------------------
                  Vertex Average                    
-------------------------------- -------------------
                       point-125           2.1716843

          mag-report
 -------------------
                  Vertex Average                    
-------------------------------- -------------------
                       point-125           894.34784

        phase-report
 -------------------
                  Vertex Average                    
-------------------------------- -------------------
                       point-125           1.2229394

          mag-report
 -------------------
                  Vertex Average                    
-------------------------------- -------------------
                       point-125           914.27002

        phase-report
 -------------------
                  Vertex Average                    
-------------------------------- -------------------
                       point-125          0.83457685

          mag-report
 -------------------
                  Vertex Average                [Pa]
-------------------------------- -------------------
                       point-130           112775.56

          mag-report
 -------------------
                  Vertex Average                    
-------------------------------- -------------------
                       point-130           865.00616

        phase-report
 -------------------
                  Vertex Average                    
-------------------------------- -------------------
                       point-130           2.0110672

          mag-report
 -------------------
                  Vertex Average                    
-------------------------------- -------------------
                       point-130           714.95923

        phase-report
 -------------------
                  Vertex Average                    
-------------------------------- -------------------
                       point-130         -0.31179553

          mag-report
 -------------------
                  Vertex Average                    
-------------------------------- -------------------
                       point-130           521.45648

        phase-report
 -------------------
                  Vertex Average                    
-------------------------------- -------------------
                       point-130           -1.404513

          mag-report
 -------------------
                  Vertex Average                [Pa]
-------------------------------- -------------------
                       point-135           113404.84

          mag-report
 -------------------
                  Vertex Average                    
-------------------------------- -------------------
                       point-135           902.08038

        phase-report
 -------------------
                  Vertex Average                    
-------------------------------- -------------------
                       point-135         -0.83285803

          mag-report
 -------------------
                  Vertex Average                    
-------------------------------- -------------------
                       point-135           335.01224

        phase-report
 -------------------
                  Vertex Average                    
-------------------------------- -------------------
                       point-135          0.34179094

          mag-report
 -------------------
                  Vertex Average                    
-------------------------------- -------------------
                       point-135           116.24335

        phase-report
 -------------------
                  Vertex Average                    
-------------------------------- -------------------
                       point-135          0.65123606

          mag-report
 -------------------
                  Vertex Average                [Pa]
-------------------------------- -------------------
                       point-140           110918.05

          mag-report
 -------------------
                  Vertex Average                    
-------------------------------- -------------------
                       point-140           436.49463

        phase-report
 -------------------
                  Vertex Average                    
-------------------------------- -------------------
                       point-140          -1.0268451

          mag-report
 -------------------
                  Vertex Average                    
-------------------------------- -------------------
                       point-140           162.48999

        phase-report
 -------------------
                  Vertex Average                    
-------------------------------- -------------------
                       point-140          -1.2600036

          mag-report
 -------------------
                  Vertex Average                    
-------------------------------- -------------------
                       point-140           128.31743

        phase-report
 -------------------
                  Vertex Average                    
-------------------------------- -------------------
                       point-140          -0.7045899

          mag-report
 -------------------
                  Vertex Average                [Pa]
-------------------------------- -------------------
                       point-145           116340.99

          mag-report
 -------------------
                  Vertex Average                    
-------------------------------- -------------------
                       point-145           943.70959

        phase-report
 -------------------
                  Vertex Average                    
-------------------------------- -------------------
                       point-145           1.9349958

          mag-report
 -------------------
                  Vertex Average                    
-------------------------------- -------------------
                       point-145           650.46136

        phase-report
 -------------------
                  Vertex Average                    
-------------------------------- -------------------
                       point-145          0.70883626

          mag-report
 -------------------
                  Vertex Average                    
-------------------------------- -------------------
                       point-145           565.48511

        phase-report
 -------------------
                  Vertex Average                    
-------------------------------- -------------------
                       point-145          0.31784135

          mag-report
 -------------------
                  Vertex Average                [Pa]
-------------------------------- -------------------
                       point-150           110648.98

          mag-report
 -------------------
                  Vertex Average                    
-------------------------------- -------------------
                       point-150           225.13889

        phase-report
 -------------------
                  Vertex Average                    
-------------------------------- -------------------
                       point-150          0.73012668

          mag-report
 -------------------
                  Vertex Average                    
-------------------------------- -------------------
                       point-150           523.24634

        phase-report
 -------------------
                  Vertex Average                    
-------------------------------- -------------------
                       point-150          0.48110622

          mag-report
 -------------------
                  Vertex Average                    
-------------------------------- -------------------
                       point-150           755.82495

        phase-report
 -------------------
                  Vertex Average                    
-------------------------------- -------------------
                       point-150         -0.77560657

          mag-report
 -------------------
                  Vertex Average                [Pa]
-------------------------------- -------------------
                       point-155           118273.17

          mag-report
 -------------------
                  Vertex Average                    
-------------------------------- -------------------
                       point-155           985.60754

        phase-report
 -------------------
                  Vertex Average                    
-------------------------------- -------------------
                       point-155         -0.65071273

          mag-report
 -------------------
                  Vertex Average                    
-------------------------------- -------------------
                       point-155           867.65417

        phase-report
 -------------------
                  Vertex Average                    
-------------------------------- -------------------
                       point-155          -1.0984936

          mag-report
 -------------------
                  Vertex Average                    
-------------------------------- -------------------
                       point-155           245.79097

        phase-report
 -------------------
                  Vertex Average                    
-------------------------------- -------------------
                       point-155          0.95054674

          mag-report
 -------------------
                  Vertex Average                [Pa]
-------------------------------- -------------------
                       point-160           110776.66

          mag-report
 -------------------
                  Vertex Average                    
-------------------------------- -------------------
                       point-160           727.95673

        phase-report
 -------------------
                  Vertex Average                    
-------------------------------- -------------------
                       point-160          -1.3925829

          mag-report
 -------------------
                  Vertex Average                    
-------------------------------- -------------------
                       point-160            191.4841

        phase-report
 -------------------
                  Vertex Average                    
-------------------------------- -------------------
                       point-160         -0.30461714

          mag-report
 -------------------
                  Vertex Average                    
-------------------------------- -------------------
                       point-160           123.90734

        phase-report
 -------------------
                  Vertex Average                    
-------------------------------- -------------------
                       point-160           1.3363216

          mag-report
 -------------------
                  Vertex Average                [Pa]
-------------------------------- -------------------
                       point-165           116917.02

          mag-report
 -------------------
                  Vertex Average                    
-------------------------------- -------------------
                       point-165           1099.7228

        phase-report
 -------------------
                  Vertex Average                    
-------------------------------- -------------------
                       point-165          -0.4429909

          mag-report
 -------------------
                  Vertex Average                    
-------------------------------- -------------------
                       point-165           470.64716

        phase-report
 -------------------
                  Vertex Average                    
-------------------------------- -------------------
                       point-165          -1.1188897

          mag-report
 -------------------
                  Vertex Average                    
-------------------------------- -------------------
                       point-165           340.48285

        phase-report
 -------------------
                  Vertex Average                    
-------------------------------- -------------------
                       point-165         -0.73390633

          mag-report
 -------------------
                  Vertex Average                [Pa]
-------------------------------- -------------------
                       point-170           111800.93

          mag-report
 -------------------
                  Vertex Average                    
-------------------------------- -------------------
                       point-170             866.052

        phase-report
 -------------------
                  Vertex Average                    
-------------------------------- -------------------
                       point-170           2.2971938

          mag-report
 -------------------
                  Vertex Average                    
-------------------------------- -------------------
                       point-170           676.27429

        phase-report
 -------------------
                  Vertex Average                    
-------------------------------- -------------------
                       point-170           1.2034522

          mag-report
 -------------------
                  Vertex Average                    
-------------------------------- -------------------
                       point-170           739.97137

        phase-report
 -------------------
                  Vertex Average                    
-------------------------------- -------------------
                       point-170          0.94550645

          mag-report
 -------------------
                  Vertex Average                [Pa]
-------------------------------- -------------------
                       point-175           113665.73

          mag-report
 -------------------
                  Vertex Average                    
-------------------------------- -------------------
                       point-175           831.33765

        phase-report
 -------------------
                  Vertex Average                    
-------------------------------- -------------------
                       point-175           1.7999927

          mag-report
 -------------------
                  Vertex Average                    
-------------------------------- -------------------
                       point-175           840.51642

        phase-report
 -------------------
                  Vertex Average                    
-------------------------------- -------------------
                       point-175         -0.38601249

          mag-report
 -------------------
                  Vertex Average                    
-------------------------------- -------------------
                       point-175           638.69879

        phase-report
 -------------------
                  Vertex Average                    
-------------------------------- -------------------
                       point-175          -2.1610196

          mag-report
 -------------------
                  Vertex Average                [Pa]
-------------------------------- -------------------
                       point-180           113751.75

          mag-report
 -------------------
                  Vertex Average                    
-------------------------------- -------------------
                       point-180           1179.2047

        phase-report
 -------------------
                  Vertex Average                    
-------------------------------- -------------------
                       point-180         -0.66780227

          mag-report
 -------------------
                  Vertex Average                    
-------------------------------- -------------------
                       point-180            698.1156

        phase-report
 -------------------
                  Vertex Average                    
-------------------------------- -------------------
                       point-180          -2.3682363

          mag-report
 -------------------
                  Vertex Average                    
-------------------------------- -------------------
                       point-180           370.93146

        phase-report
 -------------------
                  Vertex Average                    
-------------------------------- -------------------
                       point-180          -2.5090287

          mag-report
 -------------------
                  Vertex Average                [Pa]
-------------------------------- -------------------
                       point-185           111514.22

          mag-report
 -------------------
                  Vertex Average                    
-------------------------------- -------------------
                       point-185           896.04932

        phase-report
 -------------------
                  Vertex Average                    
-------------------------------- -------------------
                       point-185          -1.1458536

          mag-report
 -------------------
                  Vertex Average                    
-------------------------------- -------------------
                       point-185           387.78433

        phase-report
 -------------------
                  Vertex Average                    
-------------------------------- -------------------
                       point-185          -2.0433898

          mag-report
 -------------------
                  Vertex Average                    
-------------------------------- -------------------
                       point-185           162.65791

        phase-report
 -------------------
                  Vertex Average                    
-------------------------------- -------------------
                       point-185           1.2801753

          mag-report
 -------------------
                  Vertex Average                [Pa]
-------------------------------- -------------------
                       point-190           116214.51

          mag-report
 -------------------
                  Vertex Average                    
-------------------------------- -------------------
                       point-190           1068.4866

        phase-report
 -------------------
                  Vertex Average                    
-------------------------------- -------------------
                       point-190            1.384546

          mag-report
 -------------------
                  Vertex Average                    
-------------------------------- -------------------
                       point-190           787.05994

        phase-report
 -------------------
                  Vertex Average                    
-------------------------------- -------------------
                       point-190          0.76578158

          mag-report
 -------------------
                  Vertex Average                    
-------------------------------- -------------------
                       point-190            591.4776

        phase-report
 -------------------
                  Vertex Average                    
-------------------------------- -------------------
                       point-190          0.45450529

          mag-report
 -------------------
                  Vertex Average                [Pa]
-------------------------------- -------------------
                       point-195           110311.88

          mag-report
 -------------------
                  Vertex Average                    
-------------------------------- -------------------
                       point-195           639.81415

        phase-report
 -------------------
                  Vertex Average                    
-------------------------------- -------------------
                       point-195           2.4229577

          mag-report
 -------------------
                  Vertex Average                    
-------------------------------- -------------------
                       point-195           720.60474

        phase-report
 -------------------
                  Vertex Average                    
-------------------------------- -------------------
                       point-195          0.82008439

          mag-report
 -------------------
                  Vertex Average                    
-------------------------------- -------------------
                       point-195           675.38367

        phase-report
 -------------------
                  Vertex Average                    
-------------------------------- -------------------
                       point-195            -0.35343

          mag-report
 -------------------
                  Vertex Average                [Pa]
-------------------------------- -------------------
                       point-200           117894.56

          mag-report
 -------------------
                  Vertex Average                    
-------------------------------- -------------------
                       point-200           875.15454

        phase-report
 -------------------
                  Vertex Average                    
-------------------------------- -------------------
                       point-200      -0.00077338517

          mag-report
 -------------------
                  Vertex Average                    
-------------------------------- -------------------
                       point-200           667.85034

        phase-report
 -------------------
                  Vertex Average                    
-------------------------------- -------------------
                       point-200          -2.2921529

          mag-report
 -------------------
                  Vertex Average                    
-------------------------------- -------------------
                       point-200           207.98314

        phase-report
 -------------------
                  Vertex Average                    
-------------------------------- -------------------
                       point-200          0.34174633

          mag-report
 -------------------
                  Vertex Average                [Pa]
-------------------------------- -------------------
                       point-205            110110.8

          mag-report
 -------------------
                  Vertex Average                    
-------------------------------- -------------------
                       point-205            700.9928

        phase-report
 -------------------
                  Vertex Average                    
-------------------------------- -------------------
                       point-205          -0.7355603

          mag-report
 -------------------
                  Vertex Average                    
-------------------------------- -------------------
                       point-205           361.19934

        phase-report
 -------------------
                  Vertex Average                    
-------------------------------- -------------------
                       point-205           -2.232497

          mag-report
 -------------------
                  Vertex Average                    
-------------------------------- -------------------
                       point-205           195.77017

        phase-report
 -------------------
                  Vertex Average                    
-------------------------------- -------------------
                       point-205          -2.2063653

          mag-report
 -------------------
                  Vertex Average                [Pa]
-------------------------------- -------------------
                       point-210           116076.34

          mag-report
 -------------------
                  Vertex Average                    
-------------------------------- -------------------
                       point-210           1009.0892

        phase-report
 -------------------
                  Vertex Average                    
-------------------------------- -------------------
                       point-210         -0.29679957

          mag-report
 -------------------
                  Vertex Average                    
-------------------------------- -------------------
                       point-210            546.3869

        phase-report
 -------------------
                  Vertex Average                    
-------------------------------- -------------------
                       point-210          -1.4681511

          mag-report
 -------------------
                  Vertex Average                    
-------------------------------- -------------------
                       point-210           366.18103

        phase-report
 -------------------
                  Vertex Average                    
-------------------------------- -------------------
                       point-210         -0.74727529

          mag-report
 -------------------
                  Vertex Average                [Pa]
-------------------------------- -------------------
                       point-215           111262.98

          mag-report
 -------------------
                  Vertex Average                    
-------------------------------- -------------------
                       point-215            807.7702

        phase-report
 -------------------
                  Vertex Average                    
-------------------------------- -------------------
                       point-215            2.172523

          mag-report
 -------------------
                  Vertex Average                    
-------------------------------- -------------------
                       point-215           895.39691

        phase-report
 -------------------
                  Vertex Average                    
-------------------------------- -------------------
                       point-215           1.2233959

          mag-report
 -------------------
                  Vertex Average                    
-------------------------------- -------------------
                       point-215           915.27521

        phase-report
 -------------------
                  Vertex Average                    
-------------------------------- -------------------
                       point-215          0.83491051

          mag-report
 -------------------
                  Vertex Average                [Pa]
-------------------------------- -------------------
                       point-220           112775.54

          mag-report
 -------------------
                  Vertex Average                    
-------------------------------- -------------------
                       point-220            865.0163

        phase-report
 -------------------
                  Vertex Average                    
-------------------------------- -------------------
                       point-220           2.0128462

          mag-report
 -------------------
                  Vertex Average                    
-------------------------------- -------------------
                       point-220            715.3363

        phase-report
 -------------------
                  Vertex Average                    
-------------------------------- -------------------
                       point-220         -0.31064016

          mag-report
 -------------------
                  Vertex Average                    
-------------------------------- -------------------
                       point-220           520.88452

        phase-report
 -------------------
                  Vertex Average                    
-------------------------------- -------------------
                       point-220          -1.4037057

          mag-report
 -------------------
                  Vertex Average                [Pa]
-------------------------------- -------------------
                       point-225           113394.23

          mag-report
 -------------------
                  Vertex Average                    
-------------------------------- -------------------
                       point-225           901.88995

        phase-report
 -------------------
                  Vertex Average                    
-------------------------------- -------------------
                       point-225         -0.83440524

          mag-report
 -------------------
                  Vertex Average                    
-------------------------------- -------------------
                       point-225           333.64996

        phase-report
 -------------------
                  Vertex Average                    
-------------------------------- -------------------
                       point-225          0.33972305

          mag-report
 -------------------
                  Vertex Average                    
-------------------------------- -------------------
                       point-225           115.94035

        phase-report
 -------------------
                  Vertex Average                    
-------------------------------- -------------------
                       point-225           0.6539889

          mag-report
 -------------------
[...]
                  Vertex Average                [Pa]
-------------------------------- -------------------
                       point-290           117890.88

          mag-report
 -------------------
                  Vertex Average                    
-------------------------------- -------------------
                       point-290           875.92657

        phase-report
 -------------------
                  Vertex Average                    
-------------------------------- -------------------
                       point-290        0.0036917664

          mag-report
 -------------------
                  Vertex Average                    
-------------------------------- -------------------
                       point-290           668.34656

        phase-report
 -------------------
                  Vertex Average                    
-------------------------------- -------------------
                       point-290          -2.2917857

          mag-report
 -------------------
                  Vertex Average                    
-------------------------------- -------------------
                       point-290            208.8298

        phase-report
 -------------------
                  Vertex Average                    
-------------------------------- -------------------
                       point-290          0.34091204

          mag-report
 -------------------
                  Vertex Average                [Pa]
-------------------------------- -------------------
                       point-295           110115.07

          mag-report
 -------------------
                  Vertex Average                    
-------------------------------- -------------------
                       point-295           701.69836

        phase-report
 -------------------
                  Vertex Average                    
-------------------------------- -------------------
                       point-295         -0.73696238

          mag-report
 -------------------
                  Vertex Average                    
-------------------------------- -------------------
                       point-295            359.8782

        phase-report
 -------------------
                  Vertex Average                    
-------------------------------- -------------------
                       point-295          -2.2344382

          mag-report
 -------------------
                  Vertex Average                    
-------------------------------- -------------------
                       point-295           194.80464

        phase-report
 -------------------
                  Vertex Average                    
-------------------------------- -------------------
                       point-295          -2.2098637

          mag-report
 -------------------
                  Vertex Average                [Pa]
-------------------------------- -------------------
                       point-300           116076.58

          mag-report
 -------------------
                  Vertex Average                    
-------------------------------- -------------------
                       point-300           1008.8641

        phase-report
 -------------------
                  Vertex Average                    
-------------------------------- -------------------
                       point-300         -0.29697856

          mag-report
 -------------------
                  Vertex Average                    
-------------------------------- -------------------
                       point-300           545.64166

        phase-report
 -------------------
                  Vertex Average                    
-------------------------------- -------------------
                       point-300          -1.4676378

          mag-report
 -------------------
                  Vertex Average                    
-------------------------------- -------------------
                       point-300           365.66605

        phase-report
 -------------------
                  Vertex Average                    
-------------------------------- -------------------
                       point-300         -0.74785912

          mag-report
 -------------------
                  Vertex Average                [Pa]
-------------------------------- -------------------
                       point-305           111263.11

          mag-report
 -------------------
                  Vertex Average                    
-------------------------------- -------------------
                       point-305           807.95435

        phase-report
 -------------------
                  Vertex Average                    
-------------------------------- -------------------
                       point-305            2.171412

          mag-report
 -------------------
                  Vertex Average                    
-------------------------------- -------------------
                       point-305           894.72766

        phase-report
 -------------------
                  Vertex Average                    
-------------------------------- -------------------
                       point-305           1.2221996

          mag-report
 -------------------
                  Vertex Average                    
-------------------------------- -------------------
                       point-305           914.20428

        phase-report
 -------------------
                  Vertex Average                    
-------------------------------- -------------------
                       point-305          0.83398426

          mag-report
 -------------------
                  Vertex Average                [Pa]
-------------------------------- -------------------
                       point-310           112775.49

          mag-report
 -------------------
                  Vertex Average                    
-------------------------------- -------------------
                       point-310           865.04547

        phase-report
 -------------------
                  Vertex Average                    
-------------------------------- -------------------
                       point-310           2.0118518

          mag-report
 -------------------
                  Vertex Average                    
-------------------------------- -------------------
                       point-310           715.02032

        phase-report
 -------------------
                  Vertex Average                    
-------------------------------- -------------------
                       point-310         -0.31208625

          mag-report
 -------------------
                  Vertex Average                    
-------------------------------- -------------------
                       point-310           521.65533

        phase-report
 -------------------
                  Vertex Average                    
-------------------------------- -------------------
                       point-310          -1.4047436

          mag-report
 -------------------
                  Vertex Average                [Pa]
-------------------------------- -------------------
                       point-315           113404.31

          mag-report
 -------------------
                  Vertex Average                    
-------------------------------- -------------------
                       point-315           902.54468

        phase-report
 -------------------
                  Vertex Average                    
-------------------------------- -------------------
                       point-315         -0.83570367

          mag-report
 -------------------
                  Vertex Average                    
-------------------------------- -------------------
                       point-315           333.98672

        phase-report
 -------------------
                  Vertex Average                    
-------------------------------- -------------------
                       point-315          0.34234691

          mag-report
 -------------------
                  Vertex Average                    
-------------------------------- -------------------
                       point-315           116.32075

        phase-report
 -------------------
                  Vertex Average                    
-------------------------------- -------------------
                       point-315          0.65171999

          mag-report
 -------------------
                  Vertex Average                [Pa]
-------------------------------- -------------------
                       point-320           110918.15

          mag-report
 -------------------
                  Vertex Average                    
-------------------------------- -------------------
                       point-320           435.66388

        phase-report
 -------------------
                  Vertex Average                    
-------------------------------- -------------------
                       point-320          -1.0280641

          mag-report
 -------------------
                  Vertex Average                    
-------------------------------- -------------------
                       point-320           162.65811

        phase-report
 -------------------
                  Vertex Average                    
-------------------------------- -------------------
                       point-320          -1.2574276

          mag-report
 -------------------
                  Vertex Average                    
-------------------------------- -------------------
                       point-320           128.28261

        phase-report
 -------------------
                  Vertex Average                    
-------------------------------- -------------------
                       point-320         -0.70667589

          mag-report
 -------------------
                  Vertex Average                [Pa]
-------------------------------- -------------------
                       point-325           116340.66

          mag-report
 -------------------
                  Vertex Average                    
-------------------------------- -------------------
                       point-325           942.94293

        phase-report
 -------------------
                  Vertex Average                    
-------------------------------- -------------------
                       point-325           1.9375247

          mag-report
 -------------------
                  Vertex Average                    
-------------------------------- -------------------
                       point-325           650.24268

        phase-report
 -------------------
                  Vertex Average                    
-------------------------------- -------------------
                       point-325           0.7083655

          mag-report
 -------------------
                  Vertex Average                    
-------------------------------- -------------------
                       point-325           565.27014

        phase-report
 -------------------
                  Vertex Average                    
-------------------------------- -------------------
                       point-325          0.31790188

          mag-report
 -------------------
                  Vertex Average                [Pa]
-------------------------------- -------------------
                       point-330           110649.25

          mag-report
 -------------------
                  Vertex Average                    
-------------------------------- -------------------
                       point-330           224.32275

        phase-report
 -------------------
                  Vertex Average                    
-------------------------------- -------------------
                       point-330          0.74452162

          mag-report
 -------------------
                  Vertex Average                    
-------------------------------- -------------------
                       point-330           521.38574

        phase-report
 -------------------
                  Vertex Average                    
-------------------------------- -------------------
                       point-330          0.47421333

          mag-report
 -------------------
                  Vertex Average                    
-------------------------------- -------------------
                       point-330           756.46045

        phase-report
 -------------------
                  Vertex Average                    
-------------------------------- -------------------
                       point-330         -0.78010392

          mag-report
 -------------------
                  Vertex Average                [Pa]
-------------------------------- -------------------
                       point-335           118277.58

          mag-report
 -------------------
                  Vertex Average                    
-------------------------------- -------------------
                       point-335             983.008

        phase-report
 -------------------
                  Vertex Average                    
-------------------------------- -------------------
                       point-335         -0.64737105

          mag-report
 -------------------
                  Vertex Average                    
-------------------------------- -------------------
                       point-335           866.95062

        phase-report
 -------------------
                  Vertex Average                    
-------------------------------- -------------------
                       point-335          -1.0983289

          mag-report
 -------------------
                  Vertex Average                    
-------------------------------- -------------------
                       point-335           245.86575

        phase-report
 -------------------
                  Vertex Average                    
-------------------------------- -------------------
                       point-335            0.949242

          mag-report
 -------------------
                  Vertex Average                [Pa]
-------------------------------- -------------------
                       point-340           110787.56

          mag-report
 -------------------
                  Vertex Average                    
-------------------------------- -------------------
                       point-340           723.61035

        phase-report
 -------------------
                  Vertex Average                    
-------------------------------- -------------------
                       point-340            -1.38992

          mag-report
 -------------------
                  Vertex Average                    
-------------------------------- -------------------
                       point-340           190.72168

        phase-report
 -------------------
                  Vertex Average                    
-------------------------------- -------------------
                       point-340         -0.27616358

          mag-report
 -------------------
                  Vertex Average                    
-------------------------------- -------------------
                       point-340           126.06075

        phase-report
 -------------------
                  Vertex Average                    
-------------------------------- -------------------
                       point-340           1.3319023

          mag-report
 -------------------
                  Vertex Average                [Pa]
-------------------------------- -------------------
                       point-345           116932.91

          mag-report
 -------------------
                  Vertex Average                    
-------------------------------- -------------------
                       point-345           1098.3237

        phase-report
 -------------------
                  Vertex Average                    
-------------------------------- -------------------
                       point-345         -0.44244415

          mag-report
 -------------------
                  Vertex Average                    
-------------------------------- -------------------
                       point-345           469.02667

        phase-report
 -------------------
                  Vertex Average                    
-------------------------------- -------------------
                       point-345          -1.1213138

          mag-report
 -------------------
                  Vertex Average                    
-------------------------------- -------------------
                       point-345            339.5535

        phase-report
 -------------------
                  Vertex Average                    
-------------------------------- -------------------
                       point-345         -0.73802644

          mag-report
 -------------------
                  Vertex Average                [Pa]
-------------------------------- -------------------
                       point-350           111806.91

          mag-report
 -------------------
                  Vertex Average                    
-------------------------------- -------------------
                       point-350           866.53052

        phase-report
 -------------------
                  Vertex Average                    
-------------------------------- -------------------
                       point-350           2.2987647

          mag-report
 -------------------
                  Vertex Average                    
-------------------------------- -------------------
                       point-350           676.98029

        phase-report
 -------------------
                  Vertex Average                    
-------------------------------- -------------------
                       point-350            1.203447

          mag-report
 -------------------
                  Vertex Average                    
-------------------------------- -------------------
                       point-350           740.45709

        phase-report
 -------------------
                  Vertex Average                    
-------------------------------- -------------------
                       point-350          0.94586527

          mag-report
 -------------------
                  Vertex Average                [Pa]
-------------------------------- -------------------
                       point-355           113675.85

          mag-report
 -------------------
                  Vertex Average                    
-------------------------------- -------------------
                       point-355           832.11505

        phase-report
 -------------------
                  Vertex Average                    
-------------------------------- -------------------
                       point-355            1.802031

          mag-report
 -------------------
                  Vertex Average                    
-------------------------------- -------------------
                       point-355            841.0412

        phase-report
 -------------------
                  Vertex Average                    
-------------------------------- -------------------
                       point-355         -0.38498425

          mag-report
 -------------------
                  Vertex Average                    
-------------------------------- -------------------
                       point-355           638.44659

        phase-report
 -------------------
                  Vertex Average                    
-------------------------------- -------------------
                       point-355          -2.1604247
Shutting down Server...
Services Shutdown...Done.
Server Shutdown...Done.
Queue Cleared...Done.
Shutdown Complete.
Auto-Transcript Stop Time:  15:19:55, 17 Oct 2025 
Total Transcript Time: 13 Minute 14 Second.

Automatic transcript closed.
